2019-01-03 10:47:06: xmlchange success <command> ./xmlchange --force --append CAM_CONFIG_OPTS=-cosp  </command>
 ---------------------------------------------------
2019-01-03 10:47:07: xmlchange success <command> ./xmlchange --force --id BUDGETS --val TRUE  </command>
 ---------------------------------------------------
2019-01-03 10:47:08: xmlchange success <command> ./xmlchange --force PIO_TYPENAME=netcdf  </command>
 ---------------------------------------------------
2019-01-03 10:47:34: case.setup starting 
 ---------------------------------------------------
2019-01-03 10:50:18: case.setup success 
 ---------------------------------------------------
2019-01-03 11:11:39: xmlchange success <command> ./xmlchange -file env_run.xml -id HIST_OPTION -val nyears  </command>
 ---------------------------------------------------
2019-01-03 11:11:40: xmlchange success <command> ./xmlchange -file env_run.xml -id HIST_N -val 1  </command>
 ---------------------------------------------------
2019-01-03 11:11:41: xmlchange success <command> ./xmlchange -file env_run.xml -id STOP_OPTION -val ndays  </command>
 ---------------------------------------------------
2019-01-03 11:11:42: xmlchange success <command> ./xmlchange -file env_run.xml -id STOP_N -val 5  </command>
 ---------------------------------------------------
2019-01-03 11:11:49: xmlchange success <command> ./xmlchange -file env_run.xml -id DOUT_S -val True  </command>
 ---------------------------------------------------
2019-01-03 11:11:58: xmlchange success <command> ./xmlchange -file env_batch.xml -id JOB_WALLCLOCK_TIME -val 00:30:00  </command>
 ---------------------------------------------------
2019-01-03 11:11:59: xmlchange success <command> ./xmlchange -file env_batch.xml -id JOB_QUEUE -val debug  </command>
 ---------------------------------------------------
2019-01-03 11:12:18: case.build starting 
 ---------------------------------------------------
2019-01-03 11:12:18: case.build error 
ERROR: Batch configuration has changed, please run case.setup --reset
 ---------------------------------------------------
2019-01-03 11:12:37: case.setup starting 
 ---------------------------------------------------
2019-01-03 11:14:04: case.setup success 
 ---------------------------------------------------
2019-01-03 11:14:58: case.build starting 
 ---------------------------------------------------
2019-01-03 12:33:40: case.build success 
 ---------------------------------------------------
2019-01-03 13:28:57: case.submit starting 
 ---------------------------------------------------
2019-01-03 13:30:56: case.submit success case.run:11912476, case.st_archive:11912477
 ---------------------------------------------------
2019-01-03 14:33:14: case.run starting 
 ---------------------------------------------------
2019-01-03 14:35:18: model execution starting 
 ---------------------------------------------------
2019-01-03 14:49:26: model execution success 
 ---------------------------------------------------
2019-01-03 14:49:27: case.run success 
 ---------------------------------------------------
2019-01-03 14:50:12: st_archive starting 
 ---------------------------------------------------
2019-01-03 14:51:23: st_archive success 
 ---------------------------------------------------
