&clm_inparm
 albice = 0.60,0.40
 co2_type = 'diagnostic'
 create_crop_landunit = .false.
 dtime = 1800
 fatmlndfrc = '/project/projectdirs/acme/inputdata/share/domains/domain.lnd.ne30np4_oEC60to30v3.161222.nc'
 finidat = '20171228.beta3rc13_1850.ne30_oECv3_ICG.edison.clm2.r.0331-01-01-00000.nc'
 fsnowaging = '/project/projectdirs/acme/inputdata/lnd/clm2/snicardata/snicar_drdt_bst_fit_60_c070416.nc'
 fsnowoptics = '/project/projectdirs/acme/inputdata/lnd/clm2/snicardata/snicar_optics_5bnd_mam_c160322.nc'
 fsoilordercon = '/project/projectdirs/acme/inputdata/lnd/clm2/paramdata/CNP_parameters_c131108.nc'
 fsurdat = '/project/projectdirs/acme/inputdata/lnd/clm2/surfdata_map/surfdata_ne30np4_simyr1850_2015_c171018.nc'
 glc_do_dynglacier = .false.
 maxpatch_glcmec = 0
 maxpatch_pft = 17
 more_vertlayers = .false.
 nsegspc = 20
 paramfile = '/project/projectdirs/acme/inputdata/lnd/clm2/paramdata/clm_params_c180301.nc'
 urban_hac = 'ON'
 urban_traffic = .false.
 use_century_decomp = .false.
 use_cn = .false.
 use_crop = .false.
 use_dynroot = .false.
 use_ed = .false.
 use_lai_streams = .false.
 use_lch4 = .false.
 use_nitrif_denitrif = .false.
 use_vertsoilc = .true.
/
&ndepdyn_nml
/
&pdepdyn_nml
/
&popd_streams
/
&light_streams
/
&lai_streams
 lai_mapalgo = 'bilinear'
 model_year_align_lai = 2001
 stream_fldfilename_lai = '/project/projectdirs/acme/inputdata/lnd/clm2/lai_streams/MODISPFTLAI_0.5x0.5_c140711.nc'
 stream_year_first_lai = 2001
 stream_year_last_lai = 2013
/
&clm_canopyhydrology_inparm
/
&clm_soilhydrology_inparm
/
&dynamic_subgrid
 do_transient_pfts = .true.
 flanduse_timeseries = '/project/projectdirs/acme/inputdata/lnd/clm2/surfdata_map/landuse.timeseries_ne30np4_hist_simyr1850_c20171102.nc'
/
&finidat_consistency_checks
 check_finidat_year_consistency = .false.
/
&dynpft_consistency_checks
/
&clmu_inparm
/
&clm_soilstate_inparm
/
&clm_pflotran_inparm
/
&betr_inparm
/
&clm_humanindex_inparm
/
!#--------------------------------------------------------------------------------------------------------------------------
!# lnd_in:: Comment:
!# This namelist was created using the following command-line:
!#     /global/u2/c/cdang/E3SM_code_v1_mdf/20180420_SW_snicar/components/clm/bld/CLM build-namelist -infile /global/u2/c/cdang/E3SM_code_v1_mdf/20180420_SW_snicar/cime/scripts/exp.SnicarTrue.Write.cmip6-picontrol/Buildconf/clmconf/namelist -csmdata /project/projectdirs/acme/inputdata -inputdata /global/u2/c/cdang/E3SM_code_v1_mdf/20180420_SW_snicar/cime/scripts/exp.SnicarTrue.Write.cmip6-picontrol/Buildconf/clm.input_data_list -ignore_ic_year -namelist  &clm_inparm  start_ymd=00010101
!#   / -use_case 1850_CMIP6_control -res ne30np4 -clm_start_type startup -envxml_dir /global/u2/c/cdang/E3SM_code_v1_mdf/20180420_SW_snicar/cime/scripts/exp.SnicarTrue.Write.cmip6-picontrol -l_ncpl 48 -lnd_frac /project/projectdirs/acme/inputdata/share/domains/domain.lnd.ne30np4_oEC60to30v3.161222.nc -glc_nec 0 -co2_ppmv 284.317 -co2_type diagnostic -config /global/u2/c/cdang/E3SM_code_v1_mdf/20180420_SW_snicar/cime/scripts/exp.SnicarTrue.Write.cmip6-picontrol/Buildconf/clmconf/config_cache.xml -bgc sp -mask oEC60to30v3
!# For help on options use: /global/u2/c/cdang/E3SM_code_v1_mdf/20180420_SW_snicar/components/clm/bld/CLM build-namelist -help
!#--------------------------------------------------------------------------------------------------------------------------
